Curso de Modelamiento de Acuíferos con MODFLOW y Model Muse
22, 23 y 24 de Mayo del 2015
quince
Saul Montoya, saulmontoya@gidahatari.com
Rosa Quiroz,admin@gidahatari.com
Saul Montoya, saulmontoya@hotmail.com
Rosa Quiroz,admin@hotmail.com
Saul Montoya, saulmontoya@lycos.com
Rosa Quiroz,admin@lycos.com